Version 4.1
SHEET 1 880 680
WIRE 224 96 112 96
WIRE 368 96 304 96
WIRE 112 112 112 96
WIRE 368 128 368 96
WIRE 112 224 112 192
WIRE 240 224 112 224
WIRE 368 224 368 192
WIRE 368 224 240 224
FLAG 240 224 0
SYMBOL res 320 80 R90
WINDOW 0 0 56 VBottom 2
WINDOW 3 32 56 VTop 2
SYMATTR InstName R1
SYMATTR Value 10k
SYMBOL cap 352 128 R0
SYMATTR InstName C1
SYMATTR Value 1”
SYMBOL voltage 112 96 R0
WINDOW 3 -50 158 Left 2
WINDOW 123 0 0 Left 0
WINDOW 39 0 0 Left 0
SYMATTR Value PULSE(0 20 0 1n 1n 10u 100u)
SYMATTR InstName V1
TEXT 152 304 Left 2 !.tran 100m
