Version 4.1
SHEET 1 1124 680
WIRE 176 -304 32 -304
WIRE 304 -304 176 -304
WIRE 304 -288 304 -304
WIRE 176 -272 176 -304
WIRE 176 -176 176 -208
WIRE 304 -176 304 -208
WIRE 304 -176 176 -176
WIRE 304 -160 304 -176
WIRE 32 -144 32 -304
WIRE 320 -112 112 -112
WIRE 704 -112 320 -112
WIRE 208 -64 96 -64
WIRE 448 -64 208 -64
WIRE 208 -48 208 -64
WIRE 448 -48 448 -64
WIRE 160 -32 144 -32
WIRE 400 -32 368 -32
WIRE 704 -32 704 -112
WIRE 144 -16 144 -32
WIRE 368 -16 368 -32
WIRE 160 16 112 16
WIRE 320 16 320 -112
WIRE 400 16 320 16
WIRE 608 32 448 32
WIRE 208 48 208 32
WIRE 368 48 208 48
WIRE 448 48 448 32
WIRE 208 64 208 48
WIRE 416 112 272 112
WIRE 608 112 608 32
WIRE 368 128 368 48
WIRE 704 144 704 48
WIRE 32 160 32 16
WIRE 272 160 272 112
WIRE 272 160 32 160
WIRE 416 160 416 112
WIRE 448 160 448 128
WIRE 448 160 416 160
WIRE 208 176 208 144
WIRE 448 256 448 224
WIRE 608 256 608 192
WIRE 608 256 448 256
WIRE 32 304 32 272
WIRE 208 304 208 240
WIRE 208 304 32 304
WIRE 368 304 368 208
WIRE 368 304 208 304
WIRE 448 304 448 256
WIRE 448 304 368 304
WIRE 32 336 32 304
FLAG 304 -160 0
FLAG 704 144 0
FLAG 144 -16 0
FLAG 32 416 0
FLAG 368 -16 0
FLAG 112 16 0
SYMBOL voltage 304 -304 R0
WINDOW 123 0 0 Left 0
WINDOW 39 0 0 Left 0
SYMATTR InstName V3
SYMATTR Value 3.3V
SYMBOL cap 160 -272 R0
SYMATTR InstName C6
SYMATTR Value 100n
SYMBOL res 224 160 R180
WINDOW 0 36 76 Left 2
WINDOW 3 36 40 Left 2
SYMATTR InstName R1
SYMATTR Value 134
SYMATTR SpiceLine tol=0.1 pwr=0.1
SYMBOL diode 192 176 R0
SYMATTR InstName D1
SYMATTR Value 1N4148
SYMBOL res 384 224 R180
WINDOW 0 36 76 Left 2
WINDOW 3 36 40 Left 2
SYMATTR InstName R3
SYMATTR Value 1340
SYMBOL voltage 704 -48 R0
WINDOW 123 0 0 Left 0
WINDOW 39 0 0 Left 0
SYMATTR InstName V1
SYMATTR Value 5V
SYMBOL sw 208 -64 R0
SYMATTR InstName S3
SYMATTR Value MYSW
SYMBOL sw 448 -64 R0
SYMATTR InstName S1
SYMATTR Value MYSW
SYMBOL res 464 144 R180
WINDOW 0 36 76 Left 2
WINDOW 3 36 40 Left 2
SYMATTR InstName R2
SYMATTR Value 1340
SYMATTR SpiceLine tol=0.1 pwr=0.1
SYMBOL diode 432 160 R0
SYMATTR InstName D2
SYMATTR Value 1N4148
SYMBOL res 624 208 R180
WINDOW 0 36 76 Left 2
WINDOW 3 36 40 Left 2
SYMATTR InstName R5
SYMATTR Value 13400
SYMBOL res 16 320 R0
SYMATTR InstName R4
SYMATTR Value 100
SYMBOL LM334 32 -64 R0
SYMATTR InstName U1
TEXT 248 -400 Left 0 ;Iset = 227uV*T/R1\nIset = 0.0681V/R @27°C, 300K
TEXT -16 -440 Left 0 ;The LM334 should be normally used for currents >=10uA.
TEXT -200 -24 Left 0 ;R2=10*R1 is recommended\nfor temperature compensation
TEXT 8 -344 Left 2 !.dc V1 list 5V 4.9V 5.1V
TEXT 880 -24 Left 2 !.model MYSW SW()
