Version 4.1
SHEET 1 1124 680
WIRE 176 -304 32 -304
WIRE 304 -304 176 -304
WIRE 464 -304 304 -304
WIRE 304 -288 304 -304
WIRE 176 -272 176 -304
WIRE 464 -272 464 -304
WIRE 176 -176 176 -208
WIRE 304 -176 304 -208
WIRE 304 -176 176 -176
WIRE 304 -160 304 -176
WIRE 464 -160 464 -192
WIRE 32 -144 32 -304
WIRE 464 -144 464 -160
WIRE 464 -80 464 -96
WIRE 208 -64 96 -64
WIRE 208 48 208 -64
WIRE 368 48 208 48
WIRE 208 64 208 48
WIRE 368 128 368 48
WIRE 32 160 32 16
WIRE 208 160 208 144
WIRE 208 160 32 160
WIRE 208 176 208 160
WIRE 208 304 208 240
WIRE 208 304 32 304
WIRE 368 304 368 208
WIRE 368 304 208 304
WIRE 32 336 32 304
FLAG 304 -160 0
FLAG 32 416 0
FLAG 464 -80 0
SYMBOL cap 160 -272 R0
SYMATTR InstName C6
SYMATTR Value 100n
SYMBOL res 224 160 R180
WINDOW 0 36 76 Left 2
WINDOW 3 36 40 Left 2
SYMATTR InstName R1
SYMATTR Value 134
SYMATTR SpiceLine tol=0.1 pwr=0.1
SYMBOL diode 192 176 R0
SYMATTR InstName D1
SYMATTR Value 1N4148
SYMBOL res 384 224 R180
WINDOW 0 36 76 Left 2
WINDOW 3 36 40 Left 2
SYMATTR InstName R3
SYMATTR Value 1.34k
SYMBOL res 16 320 R0
SYMATTR InstName R4
SYMATTR Value 100
SYMBOL LM334 32 -64 R0
SYMATTR InstName U1
SYMBOL voltage 304 -304 R0
WINDOW 123 0 0 Left 0
WINDOW 39 0 0 Left 0
SYMATTR InstName V1
SYMATTR Value 3.3V
SYMBOL diode 448 -160 R0
SYMATTR InstName D2
SYMATTR Value 1N4148
SYMBOL res 448 -288 R0
SYMATTR InstName R2
SYMATTR Value 100
TEXT -200 -24 Left 0 ;R2=10*R1 is recommended\nfor temperature compensation
TEXT 8 -344 Left 2 ;.dc V1 list 3.3V 3.31V
TEXT 880 -24 Left 2 !.model MYSW SW()
TEXT 0 -408 Left 2 !.step temp 15 70
TEXT 8 -376 Left 2 !.op
