Version 4.1
SHEET 1 880 880
WIRE 464 64 96 64
WIRE 96 96 96 64
WIRE 240 176 160 176
WIRE 240 192 240 176
WIRE 464 272 464 64
WIRE 464 272 352 272
WIRE 96 288 96 256
WIRE 96 288 16 288
WIRE 112 288 96 288
WIRE 240 288 240 272
WIRE 240 288 112 288
WIRE 464 304 464 272
WIRE 112 320 112 288
WIRE 16 384 16 368
WIRE 16 384 -80 384
WIRE 16 400 16 384
WIRE 464 400 464 384
WIRE 464 400 416 400
WIRE -80 416 -80 384
WIRE 112 416 112 384
WIRE 288 416 112 416
WIRE 416 416 416 400
WIRE 464 432 464 400
WIRE 192 448 128 448
WIRE 352 448 352 272
WIRE 352 448 208 448
WIRE 192 464 192 448
WIRE 208 464 208 448
WIRE 112 480 112 416
WIRE 112 480 16 480
WIRE 160 480 112 480
WIRE 288 496 288 416
WIRE 288 496 224 496
WIRE -80 512 -80 496
WIRE 160 512 -80 512
WIRE 128 576 128 448
WIRE 192 576 192 528
WIRE 464 576 464 512
WIRE 464 576 192 576
WIRE -80 592 -80 512
WIRE -80 704 -80 672
FLAG 416 416 0
FLAG -80 704 0
SYMBOL LM334 96 176 R0
SYMATTR InstName U1
SYMBOL OpAmps\\LT1008 192 432 R0
SYMATTR InstName U3
SYMBOL res 224 176 R0
SYMATTR InstName R1
SYMATTR Value 2.7k
SYMBOL res 0 272 R0
SYMATTR InstName R2
SYMATTR Value 22.6k
SYMBOL res 0 384 R0
SYMATTR InstName R3
SYMATTR Value 100k
SYMATTR SpiceLine tol=1 pwr=0.1
SYMBOL res -96 400 R0
WINDOW 3 35 95 Left 2
SYMATTR Value 10Meg
SYMATTR InstName R4
SYMBOL cap 192 560 R90
WINDOW 0 0 32 VBottom 2
WINDOW 3 32 32 VTop 2
SYMATTR InstName C1
SYMATTR Value 200p
SYMBOL voltage 464 288 R0
WINDOW 123 0 0 Left 0
WINDOW 39 0 0 Left 0
SYMATTR InstName V1
SYMATTR Value 4V
SYMBOL voltage 464 416 R0
WINDOW 123 0 0 Left 0
WINDOW 39 0 0 Left 0
SYMATTR InstName V2
SYMATTR Value 4V
SYMBOL res -96 576 R0
SYMATTR InstName R5
SYMATTR Value 10000
SYMBOL References\\LT1004-1.2 112 352 R0
SYMATTR InstName U2
TEXT -272 624 Left 2 ;Load Resistor
TEXT 200 784 Left 2 !.step temp 15 70
TEXT 200 832 Left 2 !.op
TEXT 200 864 Left 2 ;.dc V1 list 2.51V 2.5V
