Version 4.1
SHEET 1 880 880
WIRE -432 -464 -512 -464
WIRE -320 -464 -432 -464
WIRE -272 -464 -320 -464
WIRE -320 -320 -320 -464
WIRE -272 -320 -320 -320
WIRE 304 -320 272 -320
WIRE 352 -320 304 -320
WIRE 464 -320 352 -320
WIRE 352 -304 352 -320
WIRE 464 -256 464 -320
WIRE 304 -240 304 -320
WIRE 304 -240 272 -240
WIRE 352 -224 352 -240
WIRE -160 -144 -160 -160
WIRE -160 -144 -240 -144
WIRE 64 -144 64 -160
WIRE 192 -144 192 -160
WIRE 464 -144 464 -176
WIRE 464 -144 192 -144
WIRE -240 -128 -240 -144
WIRE -32 -128 -32 -160
WIRE 464 -112 464 -144
WIRE -240 -48 -240 -64
WIRE -192 -48 -240 -48
WIRE -160 -48 -160 -64
WIRE -160 -48 -192 -48
WIRE -192 -32 -192 -48
WIRE 64 -32 64 -64
WIRE 464 -16 464 -32
WIRE -512 0 -512 -464
WIRE -512 96 -512 80
WIRE -512 96 -576 96
WIRE -576 128 -576 96
WIRE -512 144 -512 96
WIRE -176 208 -240 208
WIRE -80 208 -176 208
WIRE 192 208 96 208
WIRE -80 224 -80 208
WIRE 96 224 96 208
WIRE -176 240 -176 208
WIRE 192 240 192 208
WIRE -240 256 -240 208
WIRE -176 320 -176 304
WIRE -80 320 -80 304
WIRE -80 320 -176 320
WIRE -80 352 -80 320
WIRE 96 352 96 304
WIRE -176 384 -208 384
WIRE -208 400 -208 384
WIRE 208 416 176 416
WIRE 208 464 208 416
WIRE 208 464 176 464
WIRE 256 464 208 464
WIRE 416 464 256 464
WIRE 256 480 256 464
WIRE 416 480 416 464
WIRE -176 512 -256 512
WIRE 256 560 256 544
WIRE 416 592 416 560
WIRE 416 592 176 592
WIRE 416 608 416 592
WIRE -512 640 -512 224
WIRE -336 640 -512 640
WIRE -256 640 -256 512
WIRE -256 640 -336 640
WIRE -176 640 -256 640
WIRE -336 656 -336 640
WIRE 416 704 416 688
WIRE -336 736 -336 720
FLAG -432 -400 0
FLAG -192 -32 0
FLAG -32 -128 0
FLAG 64 -32 0
FLAG 352 -224 0
FLAG 464 -16 0
FLAG -208 400 0
FLAG -336 736 0
FLAG -240 256 0
FLAG 256 560 0
FLAG 192 240 0
FLAG 416 704 0
FLAG -576 128 0
SYMBOL PowerProducts\\LT3094 0 464 R0
SYMATTR InstName U1
SYMBOL PowerProducts\\LT3042 -32 -320 R0
SYMATTR InstName U5
SYMBOL cap -448 -464 R0
SYMATTR InstName C6
SYMATTR Value 4.7µf
SYMBOL res -176 -160 R0
SYMATTR InstName R6
SYMATTR Value 33.2k
SYMATTR SpiceLine tol=1
SYMBOL cap -256 -128 R0
SYMATTR InstName C7
SYMATTR Value 4.7µf
SYMBOL res 48 -160 R0
SYMATTR InstName R7
SYMATTR Value 499
SYMBOL res 448 -272 R0
SYMATTR InstName R8
SYMATTR Value 453k
SYMBOL res 448 -128 R0
SYMATTR InstName R9
SYMATTR Value 49.9k
SYMBOL cap 336 -304 R0
SYMATTR InstName C8
SYMATTR Value 4.7µ
SYMBOL cap -352 656 R0
SYMATTR InstName C9
SYMATTR Value 10µf
SYMBOL res -96 208 R0
SYMATTR InstName R10
SYMATTR Value 33.2k
SYMBOL cap -192 240 R0
SYMATTR InstName C10
SYMATTR Value 4.7µf
SYMBOL res 80 208 R0
SYMATTR InstName R11
SYMATTR Value 7.5k
SYMBOL cap 240 480 R0
SYMATTR InstName C11
SYMATTR Value 10µf
SYMBOL res 400 464 R0
SYMATTR InstName R12
SYMATTR Value 450k
SYMBOL res 400 592 R0
SYMATTR InstName R13
SYMATTR Value 50k
SYMBOL voltage -512 128 R0
WINDOW 123 0 0 Left 0
WINDOW 39 0 0 Left 0
SYMATTR InstName V2
SYMATTR Value SINE(5 0.001 100k)
SYMBOL voltage -512 -16 R0
WINDOW 123 24 44 Left 2
WINDOW 39 0 0 Left 0
SYMATTR InstName V3
SYMATTR Value SINE(5 0.001 100k)
TEXT -840 832 Left 2 ;.dc V2 4.9 5 5.1
TEXT -840 864 Left 2 !.tran 0 10m 0 100n
