Version 4.1
SHEET 1 880 848
WIRE -432 -464 -512 -464
WIRE -320 -464 -432 -464
WIRE -272 -464 -320 -464
WIRE -320 -320 -320 -464
WIRE -272 -320 -320 -320
WIRE 304 -320 272 -320
WIRE 352 -320 304 -320
WIRE 464 -320 352 -320
WIRE 352 -304 352 -320
WIRE 464 -256 464 -320
WIRE 304 -240 304 -320
WIRE 304 -240 272 -240
WIRE 352 -224 352 -240
WIRE -1008 -208 -1328 -208
WIRE -912 -208 -1008 -208
WIRE -320 -208 -320 -240
WIRE -272 -208 -320 -208
WIRE -624 -160 -704 -160
WIRE -1008 -144 -1008 -208
WIRE -912 -144 -912 -208
WIRE -704 -144 -704 -160
WIRE -624 -144 -624 -160
WIRE -160 -144 -160 -160
WIRE -160 -144 -240 -144
WIRE 64 -144 64 -160
WIRE 192 -144 192 -160
WIRE 464 -144 464 -176
WIRE 464 -144 192 -144
WIRE -240 -128 -240 -144
WIRE -32 -128 -32 -160
WIRE 464 -112 464 -144
WIRE -1360 -80 -1472 -80
WIRE -1328 -80 -1328 -208
WIRE -1328 -80 -1360 -80
WIRE -1264 -80 -1328 -80
WIRE -1104 -80 -1264 -80
WIRE -704 -80 -816 -80
WIRE -640 -80 -704 -80
WIRE -512 -80 -512 -464
WIRE -512 -80 -640 -80
WIRE -240 -48 -240 -64
WIRE -192 -48 -240 -48
WIRE -160 -48 -160 -64
WIRE -160 -48 -192 -48
WIRE -192 -32 -192 -48
WIRE 64 -32 64 -64
WIRE 464 -16 464 -32
WIRE -1104 16 -1152 16
WIRE -640 16 -640 0
WIRE -640 16 -816 16
WIRE -1152 32 -1152 16
WIRE -640 32 -640 16
WIRE -1472 48 -1472 -80
WIRE -752 48 -800 48
WIRE -1152 112 -1152 96
WIRE -1104 112 -1152 112
WIRE -800 112 -800 48
WIRE -800 112 -816 112
WIRE -752 144 -752 112
WIRE -688 144 -752 144
WIRE -640 144 -640 112
WIRE -640 144 -688 144
WIRE -688 160 -688 144
WIRE -640 176 -640 144
WIRE -1200 208 -1232 208
WIRE -1104 208 -1136 208
WIRE -752 208 -816 208
WIRE -176 208 -240 208
WIRE -80 208 -176 208
WIRE 192 208 96 208
WIRE -80 224 -80 208
WIRE 96 224 96 208
WIRE -1232 240 -1232 208
WIRE -176 240 -176 208
WIRE 192 240 192 208
WIRE -240 256 -240 208
WIRE -1360 304 -1360 -80
WIRE -1104 304 -1360 304
WIRE -640 304 -640 256
WIRE -640 304 -816 304
WIRE -640 320 -640 304
WIRE -176 320 -176 304
WIRE -80 320 -80 304
WIRE -80 320 -176 320
WIRE -80 352 -80 320
WIRE 96 352 96 304
WIRE -176 384 -208 384
WIRE -1104 400 -1152 400
WIRE -736 400 -816 400
WIRE -640 400 -736 400
WIRE -528 400 -640 400
WIRE -208 400 -208 384
WIRE -1152 416 -1152 400
WIRE 208 416 176 416
WIRE 208 464 208 416
WIRE 208 464 176 464
WIRE 256 464 208 464
WIRE 416 464 256 464
WIRE 256 480 256 464
WIRE 416 480 416 464
WIRE -176 512 -256 512
WIRE 256 560 256 544
WIRE 416 592 416 560
WIRE 416 592 176 592
WIRE 416 608 416 592
WIRE -528 640 -528 400
WIRE -336 640 -528 640
WIRE -256 640 -256 512
WIRE -256 640 -336 640
WIRE -176 640 -256 640
WIRE -336 656 -336 640
WIRE 416 704 416 688
WIRE -336 736 -336 720
FLAG -1472 128 0
FLAG -1232 240 0
FLAG -1152 416 0
FLAG -960 464 0
FLAG -736 464 0
FLAG -624 -144 0
FLAG -688 160 0
FLAG -1264 -16 0
FLAG -432 -400 0
FLAG -192 -32 0
FLAG -32 -128 0
FLAG 64 -32 0
FLAG 352 -224 0
FLAG 464 -16 0
FLAG -208 400 0
FLAG -336 736 0
FLAG -240 256 0
FLAG 256 560 0
FLAG 192 240 0
FLAG 416 704 0
SYMBOL PowerProducts\\LT3094 0 464 R0
SYMATTR InstName U1
SYMBOL PowerProducts\\LTC3260 -960 160 R0
SYMATTR InstName U2
SYMBOL voltage -1472 32 R0
WINDOW 123 0 0 Left 0
WINDOW 39 0 0 Left 0
SYMATTR InstName V1
SYMATTR Value 12V
SYMBOL cap -1136 96 R180
WINDOW 0 24 56 Left 2
WINDOW 3 24 8 Left 2
SYMATTR InstName C1
SYMATTR Value 1Ąf
SYMBOL cap -1136 192 R90
WINDOW 0 0 32 VBottom 2
WINDOW 3 32 32 VTop 2
SYMATTR InstName C2
SYMATTR Value 10Ąf
SYMBOL res -656 -96 R0
SYMATTR InstName R1
SYMATTR Value 190k
SYMBOL res -656 16 R0
SYMATTR InstName R2
SYMATTR Value 60k
SYMBOL res -656 304 R0
SYMATTR InstName R3
SYMATTR Value 190k
SYMBOL res -656 160 R0
SYMATTR InstName R4
SYMATTR Value 60k
SYMBOL cap -720 -144 R0
SYMATTR InstName C3
SYMATTR Value 10Ąf
SYMBOL cap -752 400 R0
SYMATTR InstName C4
SYMATTR Value 10Ąf
SYMBOL cap -1280 -80 R0
SYMATTR InstName C5
SYMATTR Value 10Ąf
SYMBOL PowerProducts\\LT3042 -32 -320 R0
SYMATTR InstName U5
SYMBOL res -336 -336 R0
SYMATTR InstName R5
SYMATTR Value 200k
SYMBOL cap -448 -464 R0
SYMATTR InstName C6
SYMATTR Value 4.7Ąf
SYMBOL res -176 -160 R0
SYMATTR InstName R6
SYMATTR Value 33.2k
SYMATTR SpiceLine tol=1
SYMBOL cap -256 -128 R0
SYMATTR InstName C7
SYMATTR Value 4.7Ąf
SYMBOL res 48 -160 R0
SYMATTR InstName R7
SYMATTR Value 499
SYMBOL res 448 -272 R0
SYMATTR InstName R8
SYMATTR Value 453k
SYMBOL res 448 -128 R0
SYMATTR InstName R9
SYMATTR Value 49.9k
SYMBOL cap 336 -304 R0
SYMATTR InstName C8
SYMATTR Value 4.7Ą
SYMBOL cap -352 656 R0
SYMATTR InstName C9
SYMATTR Value 10Ąf
SYMBOL res -96 208 R0
SYMATTR InstName R10
SYMATTR Value 33.2k
SYMBOL cap -192 240 R0
SYMATTR InstName C10
SYMATTR Value 4.7Ąf
SYMBOL res 80 208 R0
SYMATTR InstName R11
SYMATTR Value 7.5k
SYMBOL cap 240 480 R0
SYMATTR InstName C11
SYMATTR Value 10Ąf
SYMBOL res 400 464 R0
SYMATTR InstName R12
SYMATTR Value 450k
SYMBOL res 400 592 R0
SYMATTR InstName R13
SYMATTR Value 50k
SYMBOL cap -768 48 R0
SYMATTR InstName C12
SYMATTR Value 10nf
SYMBOL cap -768 144 R0
SYMATTR InstName C13
SYMATTR Value 10nf
TEXT -840 832 Left 2 !.dc V1 11.5 11.6 0.1
