Version 4.1
SHEET 1 1232 680
WIRE 224 -32 -208 -32
WIRE 688 -32 224 -32
WIRE 928 -32 688 -32
WIRE 752 16 640 16
WIRE -208 32 -208 -32
WIRE 688 32 688 -32
WIRE 640 48 640 16
WIRE 656 48 640 48
WIRE 224 64 224 -32
WIRE 752 64 752 16
WIRE 752 64 720 64
WIRE 816 64 752 64
WIRE 192 80 -64 80
WIRE 656 80 560 80
WIRE -64 96 -64 80
WIRE 992 96 880 96
WIRE 192 112 128 112
WIRE 560 112 560 80
WIRE 928 112 928 -32
WIRE 880 128 880 96
WIRE 896 128 880 128
WIRE -208 144 -208 112
WIRE -208 144 -256 144
WIRE 992 144 992 96
WIRE 992 144 960 144
WIRE -208 160 -208 144
WIRE 464 160 368 160
WIRE 816 160 816 144
WIRE 896 160 816 160
WIRE 128 208 128 192
WIRE 192 208 128 208
WIRE -64 240 -64 176
WIRE 80 240 -64 240
WIRE 192 240 80 240
WIRE 80 256 80 240
WIRE -208 304 -208 240
WIRE 224 304 224 256
WIRE 224 304 -208 304
WIRE 688 304 688 96
WIRE 688 304 224 304
WIRE 928 304 928 176
WIRE 928 304 688 304
FLAG 80 336 0
FLAG -256 144 0
FLAG 304 224 0
FLAG 560 192 0
FLAG 816 240 0
SYMBOL OpAmps\\AD8421 224 160 R0
SYMATTR InstName U1
SYMBOL voltage -64 80 R0
WINDOW 123 0 0 Left 0
WINDOW 39 0 0 Left 0
SYMATTR InstName V1
SYMATTR Value 0.0001
SYMBOL voltage -208 16 R0
WINDOW 123 0 0 Left 0
WINDOW 39 0 0 Left 0
SYMATTR InstName V2
SYMATTR Value 5V
SYMBOL voltage -208 144 R0
WINDOW 123 0 0 Left 0
WINDOW 39 0 0 Left 0
SYMATTR InstName V3
SYMATTR Value 5V
SYMBOL res 64 240 R0
SYMATTR InstName R1
SYMATTR Value 10Meg
SYMBOL res 112 96 R0
SYMATTR InstName R2
SYMATTR Value 50
SYMBOL voltage 560 96 R0
WINDOW 123 0 0 Left 0
WINDOW 39 0 0 Left 0
SYMATTR InstName V4
SYMATTR Value 2V
SYMBOL res 800 48 R0
SYMATTR InstName R3
SYMATTR Value 1k
SYMATTR SpiceLine tol=0.1
SYMBOL res 800 144 R0
SYMATTR InstName R4
SYMATTR Value 1k
SYMATTR SpiceLine tol=0.1
SYMBOL OpAmps\\OP77 688 0 R0
SYMATTR InstName U4
SYMBOL OpAmps\\OP77 928 80 R0
SYMATTR InstName U2
TEXT -272 360 Left 2 !.dc V1 list -0.005 0.005
TEXT 608 368 Left 2 ;Note: OP77 not the correct \nop-amp (using a TI part)
TEXT -128 -88 Left 2 ;Voltage amplification by ~200x
TEXT 528 -80 Left 2 ;Voltage attenuation by 2 (divided by 2)
